data/code/data/casedata/data_init/aus-data/AU14GenModelData_Ver04/LF_Case06_R4_Report.txt
1                                    PTI INTERACTIVE POWER SYSTEM SIMULATOR--PSS®E      MON, FEB 17 2014  18:49
                         LF_CASE06_R3_S  14-GEN SIMPLIFIED MODEL OF 4-STATE SYSTEM.       %MVA FOR TRANSFORMERS
                         LIGHT LOAD#2 AREA4->AREA2->AREA3->AREA5 0-0-0 MW                 % I  FOR NON-TRANSFORMER BRANCHES

 X------- FROM BUS ------X AREA  VOLT            GEN    LOAD    SHUNT  X---------- TO BUS ----------X                        TRANSFORMER     RATING
   BUS# X-- NAME --X BASKV ZONE  PU/KV  ANGLE  MW/MVAR MW/MVAR MW/MVAR   BUS# X-- NAME --X BASKV AREA CKT    MW     MVAR    RATIO   ANGLE   %  SET A

    101 1_HPSGEN    15.000    1 1.0000  -19.5     0.0      0.0     0.0 -----------------------------------------------------------------------------
                              1 15.000         -204.4R     0.0     0.0    102 1_HPS330    330.00    1  1      0.0  -204.4  1.000LK

    102 1_HPS330    330.00    1 1.0368  -19.5     0.0    270.0     0.0 -----------------------------------------------------------------------------
                              1 342.14            0.0     30.0     0.0    101 1_HPSGEN    15.000    1  1      0.0   211.9  1.000UN
                                                                          217 2_YC_330    330.00    2  1    -65.1   -28.4
                                                                          217 2_YC_330    330.00    2  2    -65.1   -28.4
                                                                          217 2_YC_330    330.00    2  3    -70.0   -24.2
                                                                          217 2_YC_330    330.00    2  4    -70.0   -24.2
                                                                          309 3_D__330    330.00    3  1      0.1   -43.7
                                                                          309 3_D__330    330.00    3  2      0.1   -43.7
                                                                          309 3_D__330    330.00    3  3      0.1   -49.2
    201 2_BPSGEN    20.000    2 1.0000    4.4  1680.0      0.0     0.0 -----------------------------------------------------------------------------
                              1 20.000         -160.5R     0.0     0.0    206 2_BPS330    330.00    2  1   1680.0  -160.5  1.010LK

    202 2_EPSGEN    20.000    2 1.0000    2.0  1470.0      0.0     0.0 -----------------------------------------------------------------------------
                              1 20.000          -21.8R     0.0     0.0    209 2_EPS330    330.00    2  1   1470.0   -21.8  1.010LK

    203 2_VPSGEN    20.000    2 1.0000    1.4  1470.0      0.0     0.0 -----------------------------------------------------------------------------
                              1 20.000           11.2R     0.0     0.0    208 2_VPS330    330.00    2  1   1470.0    11.2  1.010LK

    204 2_MPSGEN    20.000    2 1.0000    0.0  1457.5      0.0     0.0 -----------------------------------------------------------------------------
                              1 20.000         -183.7R     0.0     0.0    215 2_MPS330    330.00    2  1   1457.5  -183.7  1.010LK

    205 2_ASV330    330.00    2 1.0450   -8.3     0.0    235.0     0.0 -----------------------------------------------------------------------------
                              1 344.85          -29.4R    25.0     0.0    206 2_BPS330    330.00    2  1   -113.4    14.0
                                                                          206 2_BPS330    330.00    2  2   -113.4    14.0
                                                                          416 4_DU_330    330.00    4  1     -4.1   -41.2
                                                                          416 4_DU_330    330.00    4  2     -4.1   -41.2
    206 2_BPS330    330.00    2 1.0121   -3.3     0.0     80.0     0.0 -----------------------------------------------------------------------------
                              1 334.00            0.0     10.0     0.0    201 2_BPSGEN    20.000    2  1  -1680.0   392.9  1.000UN
                                                                          205 2_ASV330    330.00    2  1    114.9  -100.7
                                                                          205 2_ASV330    330.00    2  2    114.9  -100.7
                                                                          207 2_N__330    330.00    2  1    232.0     1.0
                                                                          207 2_N__330    330.00    2  2    232.0     1.0
                                                                          212 2_SW_330    330.00    2  1    339.0   -58.6
                                                                          212 2_SW_330    330.00    2  2    339.0   -58.6
                                                                          215 2_MPS330    330.00    2  1    114.2   -43.2
                                                                          215 2_MPS330    330.00    2  2    114.2   -43.2
    207 2_N__330    330.00    2 0.9968   -7.9     0.0   1110.0     0.0 -----------------------------------------------------------------------------
                              1 328.95            0.0    120.0     0.0    206 2_BPS330    330.00    2  1   -229.6   -26.2
                                                                          206 2_BPS330    330.00    2  2   -229.6   -26.2
                                                                          208 2_VPS330    330.00    2  1    -82.2   -22.8
                                                                          208 2_VPS330    330.00    2  2    -82.2   -22.8
                                                                          209 2_EPS330    330.00    2  1   -486.2   -21.9
    208 2_VPS330    330.00    2 1.0004   -7.3     0.0    125.0     0.0 -----------------------------------------------------------------------------
                              1 330.12            0.0     15.0     0.0    203 2_VPSGEN    20.000    2  1  -1470.0   213.7  1.000UN
                                                                          207 2_N__330    330.00    2  1     82.4     6.7
                                                                          207 2_N__330    330.00    2  2     82.4     6.7
                                                                          211 2_SN_330    330.00    2  1    393.4   -80.7
                                                                          211 2_SN_330    330.00    2  2    393.4   -80.7
                                                                          211 2_SN_330    330.00    2  3    393.4   -80.7
    209 2_EPS330    330.00    2 1.0023   -6.2     0.0      0.0     0.0 -----------------------------------------------------------------------------
                              1 330.76            0.0      0.0     0.0    202 2_EPSGEN    20.000    2  1  -1470.0   233.5  1.000UN
                                                                          207 2_N__330    330.00    2  1    488.2    29.1
                                                                          210 2_EPS500    500.00    2  1    158.3   -43.0  0.976LK
                                                                          210 2_EPS500    500.00    2  2    158.3   -43.0  0.976LK
                                                                          210 2_EPS500    500.00    2  3    158.3   -43.0  0.976LK
                                                                          210 2_EPS500    500.00    2  4    158.3   -43.0  0.976LK
                                                                          212 2_SW_330    330.00    2  1    348.6   -90.7
    210 2_EPS500    500.00    2 1.0396   -8.5     0.0      0.0     0.0 -----------------------------------------------------------------------------
                              1 519.80            0.0      0.0     0.0    209 2_EPS330    330.00    2  1   -158.3    49.9  1.000UN
                                                                          209 2_EPS330    330.00    2  2   -158.3    49.9  1.000UN
                                                                          209 2_EPS330    330.00    2  3   -158.3    49.9  1.000UN
                                                                          209 2_EPS330    330.00    2  4   -158.3    49.9  1.000UN
                                                                          213 2_K__500    500.00    2  1    316.6   -99.8
                                                                          213 2_K__500    500.00    2  2    316.6   -99.8
    211 2_SN_330    330.00    2 1.0093  -12.9     0.0   1035.0     0.0 -----------------------------------------------------------------------------
                              1 333.08            0.0    110.0     0.0    208 2_VPS330    330.00    2  1   -388.5    89.4
                                                                          208 2_VPS330    330.00    2  2   -388.5    89.4
                                                                          208 2_VPS330    330.00    2  3   -388.5    89.4
                                                                          212 2_SW_330    330.00    2  1     57.0  -104.2
                                                                          212 2_SW_330    330.00    2  2     57.0  -104.2
                                                                          214 2_K__330    330.00    2  1     16.6  -170.0
    212 2_SW_330    330.00    2 1.0190  -13.3     0.0   1000.0     0.0 -----------------------------------------------------------------------------
                              1 336.27            0.0    110.0  -415.3    206 2_BPS330    330.00    2  1   -331.5    51.4
                                                                          206 2_BPS330    330.00    2  2   -331.5    51.4
                                                                          209 2_EPS330    330.00    2  1   -342.9    90.8
                                                                          211 2_SN_330    330.00    2  1    -56.8    91.8
                                                                          211 2_SN_330    330.00    2  2    -56.8    91.8
                                                                          217 2_YC_330    330.00    2  1    119.5   -72.0
    213 2_K__500    500.00    2 1.0398  -10.9     0.0      0.0     0.0 -----------------------------------------------------------------------------
                              1 519.90            0.0      0.0     0.0    210 2_EPS500    500.00    2  1   -315.7   -53.2
                                                                          210 2_EPS500    500.00    2  2   -315.7   -53.2
                                                                          214 2_K__330    330.00    2  1    157.9    26.6  1.000LK
                                                                          214 2_K__330    330.00    2  2    157.9    26.6  1.000LK
                                                                          214 2_K__330    330.00    2  3    157.9    26.6  1.000LK
                                                                          214 2_K__330    330.00    2  4    157.9    26.6  1.000LK
    214 2_K__330    330.00    2 1.0337  -13.2     0.0      0.0     0.0 -----------------------------------------------------------------------------
                              1 341.11            0.0      0.0     0.0    211 2_SN_330    330.00    2  1    -16.1   154.1
                                                                          213 2_K__500    500.00    2  1   -157.9   -20.1  1.000UN
                                                                          213 2_K__500    500.00    2  2   -157.9   -20.1  1.000UN
                                                                          213 2_K__500    500.00    2  3   -157.9   -20.1  1.000UN
                                                                          213 2_K__500    500.00    2  4   -157.9   -20.1  1.000UN
                                                                          216 2_SS_330    330.00    2  1    463.1   -33.0
                                                                          217 2_YC_330    330.00    2  1    184.4   -40.6
    215 2_MPS330    330.00    2 1.0117   -6.7     0.0    290.0     0.0 -----------------------------------------------------------------------------
                              1 333.87            0.0     30.0     0.0    204 2_MPSGEN    20.000    2  1  -1457.5   359.8  1.000UN
                                                                          206 2_BPS330    330.00    2  1   -113.3   -16.2
                                                                          206 2_BPS330    330.00    2  2   -113.3   -16.2
                                                                          216 2_SS_330    330.00    2  1    373.4   -94.7
                                                                          216 2_SS_330    330.00    2  2    373.4   -94.7
                                                                          217 2_YC_330    330.00    2  1    323.7   -84.0
                                                                          217 2_YC_330    330.00    2  2    323.7   -84.0
    216 2_SS_330    330.00    2 1.0319  -15.2     0.0   1105.0     0.0 -----------------------------------------------------------------------------
                              1 340.51            0.0    120.0  -319.4    214 2_K__330    330.00    2  1   -461.1    38.4
                                                                          215 2_MPS330    330.00    2  1   -366.2   100.0
                                                                          215 2_MPS330    330.00    2  2   -366.2   100.0
                                                                          217 2_YC_330    330.00    2  1     88.4   -38.9
    217 2_YC_330    330.00    2 1.0330  -17.1     0.0    750.0     0.0 -----------------------------------------------------------------------------
                              1 340.89            0.0     80.0     0.0    102 1_HPS330    330.00    1  1     65.4   -56.3
                                                                          102 1_HPS330    330.00    1  2     65.4   -56.3
                                                                          102 1_HPS330    330.00    1  3     70.4   -54.2
                                                                          102 1_HPS330    330.00    1  4     70.4   -54.2
                                                                          212 2_SW_330    330.00    2  1   -118.5     8.4
                                                                          214 2_K__330    330.00    2  1   -182.8     2.3
                                                                          215 2_MPS330    330.00    2  1   -316.2    70.6
                                                                          215 2_MPS330    330.00    2  2   -316.2    70.6
                                                                          216 2_SS_330    330.00    2  1    -88.1   -10.8
    301 3_LPSGEN    20.000    3 1.0000    0.5  3300.0      0.0     0.0 -----------------------------------------------------------------------------
                              1 20.000           56.3R     0.0     0.0    303 3_LPS500    500.00    3  1   3300.0    56.3  1.000LK

    302 3_YPSGEN    20.000    3 1.0000   -7.7   786.0      0.0     0.0 -----------------------------------------------------------------------------
                              1 20.000          -13.9R     0.0     0.0    312 3_YPS220    220.00    3  1    786.0   -13.9  1.000LK

    303 3_LPS500    500.00    3 1.0064   -7.1     0.0      0.0     0.0 -----------------------------------------------------------------------------
                              1 503.22            0.0      0.0     0.0    301 3_LPSGEN    20.000    3  1  -3300.0   379.4  1.000UN
                                                                          304 3_R__500    500.00    3  1    552.7   -40.2
                                                                          304 3_R__500    500.00    3  2    552.7   -40.2
                                                                          305 3_SM_500    500.00    3  1   1097.3  -149.5
                                                                          305 3_SM_500    500.00    3  2   1097.3  -149.5
    304 3_R__500    500.00    3 1.0080  -15.8     0.0      0.0     0.0 -----------------------------------------------------------------------------
                              1 504.00            0.0      0.0     0.0    303 3_LPS500    500.00    3  1   -546.7    49.5
                                                                          303 3_LPS500    500.00    3  2   -546.7    49.5
                                                                          305 3_SM_500    500.00    3  1    474.7  -346.5
                                                                          313 3_RSV220    220.00    3  1    309.3   123.7  0.961LK
                                                                          313 3_RSV220    220.00    3  2    309.3   123.7  0.961LK
    305 3_SM_500    500.00    3 1.0197  -16.9     0.0      0.0     0.0 -----------------------------------------------------------------------------
                              1 509.84            0.0      0.0     0.0    303 3_LPS500    500.00    3  1  -1084.2   165.9
                                                                          303 3_LPS500    500.00    3  2  -1084.2   165.9
                                                                          304 3_R__500    500.00    3  1   -473.7   316.0
                                                                          306 3_K__500    500.00    3  1    863.2  -146.4
                                                                          307 3_M__500    500.00    3  1    567.7  -168.3
                                                                          307 3_M__500    500.00    3  2    567.7  -168.3
                                                                          311 3_SM_330    330.00    3  1     47.1   -67.0  1.000LK
                                                                          311 3_SM_330    330.00    3  2     47.1   -67.0  1.000LK
                                                                          311 3_SM_330    330.00    3  3     47.1   -67.0  1.000LK
                                                                          314 3_SM_220    220.00    3  1    251.2    18.1  1.000LK
                                                                          314 3_SM_220    220.00    3  2    251.2    18.1  1.000LK
    306 3_K__500    500.00    3 1.0221  -18.4     0.0    900.0     0.0 -----------------------------------------------------------------------------
                              1 511.07            0.0     90.0     0.0    305 3_SM_500    500.00    3  1   -861.7   135.1
                                                                          307 3_M__500    500.00    3  1    -38.3  -225.1
    307 3_M__500    500.00    3 1.0247  -18.4     0.0    470.0     0.0 -----------------------------------------------------------------------------
                              1 512.37            0.0     50.0     0.0    305 3_SM_500    500.00    3  1   -566.7   136.5
                                                                          305 3_SM_500    500.00    3  2   -566.7   136.5
                                                                          306 3_K__500    500.00    3  1     38.4   212.3
                                                                          308 3_H__500    500.00    3  1    312.5  -267.6
                                                                          308 3_H__500    500.00    3  2    312.5  -267.6
    308 3_H__500    500.00    3 1.0501  -23.9     0.0    620.0     0.0 -----------------------------------------------------------------------------
                              1 525.05            0.0    100.0     0.0    307 3_M__500    500.00    3  1   -310.2   -70.6
                                                                          307 3_M__500    500.00    3  2   -310.2   -70.6
                                                                          315 3_H__275    275.00    3  1      0.2    20.6  1.000LK
                                                                          315 3_H__275    275.00    3  2      0.2    20.6  1.000LK
    309 3_D__330    330.00    3 1.0437  -19.6     0.0    140.0     0.0 -----------------------------------------------------------------------------
                              1 344.44            0.0     15.0     0.0    102 1_HPS330    330.00    1  1     -0.1    -3.4
                                                                          102 1_HPS330    330.00    1  2     -0.1    -3.4
                                                                          102 1_HPS330    330.00    1  3      0.0   -33.0
                                                                          310 3_SS_330    330.00    3  1    -46.6     8.3
                                                                          310 3_SS_330    330.00    3  2    -46.6     8.3
                                                                          310 3_SS_330    330.00    3  3    -46.6     8.3
    310 3_SS_330    330.00    3 1.0102  -16.6     0.0      0.0     0.0 -----------------------------------------------------------------------------
                              1 333.35            0.0      0.0     0.0    309 3_D__330    330.00    3  1     47.1   -66.0
                                                                          309 3_D__330    330.00    3  2     47.1   -66.0
                                                                          309 3_D__330    330.00    3  3     47.1   -66.0
                                                                          311 3_SM_330    330.00    3  1    -70.6    99.1
                                                                          311 3_SM_330    330.00    3  2    -70.6    99.1
    311 3_SM_330    330.00    3 1.0435  -17.9     0.0      0.0     0.0 -----------------------------------------------------------------------------
                              1 344.34            0.0      0.0     0.0    305 3_SM_500    500.00    3  1    -47.1    69.3  1.000UN
                                                                          305 3_SM_500    500.00    3  2    -47.1    69.3  1.000UN
                                                                          305 3_SM_500    500.00    3  3    -47.1    69.3  1.000UN
                                                                          310 3_SS_330    330.00    3  1     70.6  -104.0
                                                                          310 3_SS_330    330.00    3  2     70.6  -104.0
    312 3_YPS220    220.00    3 1.0111  -15.3     0.0     92.0     0.0 -----------------------------------------------------------------------------
                              1 222.44            0.0     10.0     0.0    302 3_YPSGEN    20.000    3  1   -786.0   118.3  1.000UN
                                                                          313 3_RSV220    220.00    3  1    231.3   -42.8
                                                                          313 3_RSV220    220.00    3  2    231.3   -42.8
                                                                          313 3_RSV220    220.00    3  3    231.3   -42.8
    313 3_RSV220    220.00    3 1.0150  -21.2     0.0   1625.0     0.0 -----------------------------------------------------------------------------
                              1 223.30           54.2R   165.0     0.0    304 3_R__500    500.00    3  1   -309.3   -91.4  1.000UN
                                                                          304 3_R__500    500.00    3  2   -309.3   -91.4  1.000UN
                                                                          312 3_YPS220    220.00    3  1   -228.1    35.9
                                                                          312 3_YPS220    220.00    3  2   -228.1    35.9
                                                                          312 3_YPS220    220.00    3  3   -228.1    35.9
                                                                          314 3_SM_220    220.00    3  1   -161.0   -17.8
                                                                          314 3_SM_220    220.00    3  2   -161.0   -17.8
    314 3_SM_220    220.00    3 1.0171  -20.3     0.0    180.0     0.0 -----------------------------------------------------------------------------
                              1 223.77            0.0     20.0     0.0    305 3_SM_500    500.00    3  1   -251.2    -3.5  1.000UN
                                                                          305 3_SM_500    500.00    3  2   -251.2    -3.5  1.000UN
                                                                          313 3_RSV220    220.00    3  1    161.2    -6.5
                                                                          313 3_RSV220    220.00    3  2    161.2    -6.5
    315 3_H__275    275.00    3 1.0448  -23.9     0.0      0.0     0.0 -----------------------------------------------------------------------------
                              1 287.32            0.0      0.0     0.0    308 3_H__500    500.00    3  1     -0.2   -20.5  1.000UN
                                                                          308 3_H__500    500.00    3  2     -0.2   -20.5  1.000UN
                                                                          509 5_SSV275    275.00    5  1      0.2    20.5
                                                                          509 5_SSV275    275.00    5  2      0.2    20.5
    401 4_TPSGEN    20.000    4 1.0000   -0.8  1050.0      0.0     0.0 -----------------------------------------------------------------------------
                              1 20.000          -97.8R     0.0     0.0    410 4_TPS275    275.00    4  1   1050.0   -97.8  1.010LK

    402 4_CPSGEN    20.000    4 1.0000   16.4   810.0      0.0     0.0 -----------------------------------------------------------------------------
                              1 20.000           14.0R     0.0     0.0    408 4_CPS275    275.00    4  1    810.0    14.0  1.000LK

    403 4_SPSGEN    20.000    4 1.0000   14.9   760.0      0.0     0.0 -----------------------------------------------------------------------------
                              1 20.000           50.4R     0.0     0.0    407 4_SPS275    275.00    4  1    760.0    50.4  1.000LK

    404 4_GPSGEN    20.000    4 1.0000    9.4   735.0      0.0     0.0 -----------------------------------------------------------------------------
                              1 20.000           11.6R     0.0     0.0    405 4_GPS275    275.00    4  1    735.0    11.6  1.000LK

    405 4_GPS275    275.00    4 1.0058    2.3     0.0    730.0     0.0 -----------------------------------------------------------------------------
                              1 276.60            0.0     75.0     0.0    404 4_GPSGEN    20.000    4  1   -735.0    80.2  1.000UN
                                                                          406 4_N__275    275.00    4  1   -126.5    11.1
                                                                          406 4_N__275    275.00    4  2   -126.5    11.1
                                                                          408 4_CPS275    275.00    4  1   -217.6    23.5
                                                                          409 4_W__275    275.00    4  1    158.5   -67.0
                                                                          409 4_W__275    275.00    4  2    158.5   -67.0
                                                                          409 4_W__275    275.00    4  3    158.5   -67.0
    406 4_N__275    275.00    4 0.9982    5.8     0.0    540.0     0.0 -----------------------------------------------------------------------------
                              1 274.51            0.0     55.0     0.0    405 4_GPS275    275.00    4  1    127.1   -41.4
                                                                          405 4_GPS275    275.00    4  2    127.1   -41.4
                                                                          407 4_SPS275    275.00    4  1   -397.1    13.9
                                                                          407 4_SPS275    275.00    4  2   -397.1    13.9
    407 4_SPS275    275.00    4 0.9998    7.5     0.0      0.0     0.0 -----------------------------------------------------------------------------
                              1 274.94            0.0      0.0     0.0    403 4_SPSGEN    20.000    4  1   -760.0    47.7  1.000UN
                                                                          406 4_N__275    275.00    4  1    398.1    -8.1
                                                                          406 4_N__275    275.00    4  2    398.1    -8.1
                                                                          408 4_CPS275    275.00    4  1    -36.2   -31.5
    408 4_CPS275    275.00    4 1.0071    8.6     0.0    110.0     0.0 -----------------------------------------------------------------------------
                              1 276.95            0.0     10.0     0.0    402 4_CPSGEN    20.000    4  1   -810.0    97.6  1.000UN
                                                                          405 4_GPS275    275.00    4  1    220.1   -18.7
                                                                          407 4_SPS275    275.00    4  1     36.2    -9.2
                                                                          410 4_TPS275    275.00    4  1    147.9   -26.6
                                                                          410 4_TPS275    275.00    4  2    147.9   -26.6
                                                                          410 4_TPS275    275.00    4  3    147.9   -26.6
    409 4_W__275    275.00    4 1.0293   -8.8     0.0    190.0     0.0 -----------------------------------------------------------------------------
                              1 283.05            0.0     20.0   -63.6    405 4_GPS275    275.00    4  1   -153.9    16.4
                                                                          405 4_GPS275    275.00    4  2   -153.9    16.4
                                                                          405 4_GPS275    275.00    4  3   -153.9    16.4
                                                                          411 4_SP_275    275.00    4  1    135.8    -2.8
                                                                          411 4_SP_275    275.00    4  2    135.8    -2.8
    410 4_TPS275    275.00    4 1.0082   -7.6     0.0    390.0     0.0 -----------------------------------------------------------------------------
                              1 277.27            0.0     40.0     0.0    401 4_TPSGEN    20.000    4  1  -1050.0   225.7  1.000UN
                                                                          408 4_CPS275    275.00    4  1   -144.3    -0.3
                                                                          408 4_CPS275    275.00    4  2   -144.3    -0.3
                                                                          408 4_CPS275    275.00    4  3   -144.3    -0.3
                                                                          411 4_SP_275    275.00    4  1    211.0   -20.8
                                                                          412 4_BW_275    275.00    4  1    218.2   -11.2
                                                                          412 4_BW_275    275.00    4  2    218.2   -11.2
                                                                          412 4_BW_275    275.00    4  3    218.2   -11.2
                                                                          412 4_BW_275    275.00    4  4    218.2   -11.2
                                                                          413 4_BR_275    275.00    4  1      4.5   -99.6
                                                                          413 4_BR_275    275.00    4  2      4.5   -99.6
    411 4_SP_275    275.00    4 1.0050  -14.0     0.0    420.0     0.0 -----------------------------------------------------------------------------
                              1 276.36            0.0     45.0   -30.3    409 4_W__275    275.00    4  1   -134.0   -32.2
                                                                          409 4_W__275    275.00    4  2   -134.0   -32.2
                                                                          410 4_TPS275    275.00    4  1   -209.2     0.9
                                                                          412 4_BW_275    275.00    4  1     28.6    24.4
                                                                          412 4_BW_275    275.00    4  2     28.6    24.4
    412 4_BW_275    275.00    4 1.0000  -14.2     0.0    922.0     0.0 -----------------------------------------------------------------------------
                              1 275.00           -0.2R   100.0     0.0    410 4_TPS275    275.00    4  1   -216.2    -6.9
                                                                          410 4_TPS275    275.00    4  2   -216.2    -6.9
                                                                          410 4_TPS275    275.00    4  3   -216.2    -6.9
                                                                          410 4_TPS275    275.00    4  4   -216.2    -6.9
                                                                          411 4_SP_275    275.00    4  1    -28.6   -36.4
                                                                          411 4_SP_275    275.00    4  2    -28.6   -36.4
    413 4_BR_275    275.00    4 1.0469   -7.9     0.0      0.0     0.0 -----------------------------------------------------------------------------
                              1 287.90            0.0      0.0     0.0    410 4_TPS275    275.00    4  1     -4.2    60.4
                                                                          410 4_TPS275    275.00    4  2     -4.2    60.4
                                                                          414 4_BR_330    330.00    4  1      2.8   -40.2  1.000LK
                                                                          414 4_BR_330    330.00    4  2      2.8   -40.2  1.000LK
                                                                          414 4_BR_330    330.00    4  3      2.8   -40.2  1.000LK
    414 4_BR_330    330.00    4 1.0194   -7.9     0.0      0.0     0.0 -----------------------------------------------------------------------------
                              1 336.41            0.0      0.0    31.2    413 4_BR_275    275.00    4  1     -2.8    40.4  0.971UN
                                                                          413 4_BR_275    275.00    4  2     -2.8    40.4  0.971UN
                                                                          413 4_BR_275    275.00    4  3     -2.8    40.4  0.971UN
                                                                          415 4_BU_330    330.00    4  1      4.2   -76.1
                                                                          415 4_BU_330    330.00    4  2      4.2   -76.1
    415 4_BU_330    330.00    4 1.0330   -8.0     0.0      0.0     0.0 -----------------------------------------------------------------------------
                              1 340.90            0.0      0.0    64.0    414 4_BR_330    330.00    4  1     -4.2    35.8
                                                                          414 4_BR_330    330.00    4  2     -4.2    35.8
                                                                          416 4_DU_330    330.00    4  1      4.2   -67.8
                                                                          416 4_DU_330    330.00    4  2      4.2   -67.8
    416 4_DU_330    330.00    4 1.0458   -8.2     0.0      0.0     0.0 -----------------------------------------------------------------------------
                              1 345.10            0.0      0.0    98.4    205 2_ASV330    330.00    2  1      4.1   -38.5
                                                                          205 2_ASV330    330.00    2  2      4.1   -38.5
                                                                          415 4_BU_330    330.00    4  1     -4.1   -10.7
                                                                          415 4_BU_330    330.00    4  2     -4.1   -10.7
    501 5_NPSGEN    20.000    5 1.0000   -8.5   270.0      0.0     0.0 -----------------------------------------------------------------------------
                              1 20.000          -42.2R     0.0     0.0    504 5_D__275    275.00    5  1    270.0   -42.2  1.015LK

    502 5_TPSGEN    15.000    5 1.0000   -5.7   800.0      0.0     0.0 -----------------------------------------------------------------------------
                              1 15.000          -38.8R     0.0     0.0    505 5_TPS275    275.00    5  1    800.0   -38.8  1.020LK

    503 5_PPSGEN    15.000    5 1.0000   -8.4   240.0      0.0     0.0 -----------------------------------------------------------------------------
                              1 15.000          -22.3R     0.0     0.0    506 5_PPS275    275.00    5  1    240.0   -22.3  1.020LK

    504 5_D__275    275.00    5 1.0165  -16.4     0.0    170.0     0.0 -----------------------------------------------------------------------------
                              1 279.55            0.0     20.0     0.0    501 5_NPSGEN    20.000    5  1   -270.0    81.4  1.000UN
                                                                          507 5_PSV275    275.00    5  1     -0.9   -17.6
                                                                          507 5_PSV275    275.00    5  2     -0.9   -17.6
                                                                          508 5_CG_275    275.00    5  1     50.9   -33.1
                                                                          508 5_CG_275    275.00    5  2     50.9   -33.1
    505 5_TPS275    275.00    5 0.9949  -13.3     0.0      0.0     0.0 -----------------------------------------------------------------------------
                              1 273.61            0.0      0.0     0.0    502 5_TPSGEN    15.000    5  1   -800.0   145.7  1.000UN
                                                                          507 5_PSV275    275.00    5  1    292.8   -51.0
                                                                          507 5_PSV275    275.00    5  2    292.8   -51.0
                                                                          508 5_CG_275    275.00    5  1    214.4   -43.6
    506 5_PPS275    275.00    5 0.9989  -15.4     0.0      0.0     0.0 -----------------------------------------------------------------------------
                              1 274.71            0.0      0.0     0.0    503 5_PPSGEN    15.000    5  1   -240.0    52.6  1.000UN
                                                                          507 5_PSV275    275.00    5  1     78.3   -14.6
                                                                          507 5_PSV275    275.00    5  2     78.3   -14.6
                                                                          508 5_CG_275    275.00    5  1     83.5   -23.5
    507 5_PSV275    275.00    5 1.0000  -16.2     0.0    565.0     0.0 -----------------------------------------------------------------------------
                              1 275.00           -3.7R    65.0     0.0    504 5_D__275    275.00    5  1      0.9   -39.2
                                                                          504 5_D__275    275.00    5  2      0.9   -39.2
                                                                          505 5_TPS275    275.00    5  1   -291.4    63.2
                                                                          505 5_TPS275    275.00    5  2   -291.4    63.2
                                                                          506 5_PPS275    275.00    5  1    -78.2    12.6
                                                                          506 5_PPS275    275.00    5  2    -78.2    12.6
                                                                          508 5_CG_275    275.00    5  1     53.2   -16.8
                                                                          509 5_SSV275    275.00    5  1     19.8   -20.9
                                                                          509 5_SSV275    275.00    5  2     19.8   -20.9
                                                                          509 5_SSV275    275.00    5  3     19.8   -20.9
                                                                          509 5_SSV275    275.00    5  4     19.8   -20.9
                                                                          509 5_SSV275    275.00    5  5     19.8   -20.9
                                                                          509 5_SSV275    275.00    5  6     19.8   -20.9
    508 5_CG_275    275.00    5 1.0013  -16.8     0.0    450.0     0.0 -----------------------------------------------------------------------------
                              1 275.37            0.0     50.0     0.0    504 5_D__275    275.00    5  1    -50.2   -54.9
                                                                          504 5_D__275    275.00    5  2    -50.2   -54.9
                                                                          505 5_TPS275    275.00    5  1   -213.2    40.0
                                                                          506 5_PPS275    275.00    5  1    -83.3    11.5
                                                                          507 5_PSV275    275.00    5  1    -53.1     8.4
    509 5_SSV275    275.00    5 1.0300  -23.8     0.0    117.0     0.0 -----------------------------------------------------------------------------
                              1 283.25         -109.3R    15.0     0.0    315 3_H__275    275.00    3  1     -0.1   -40.5
                                                                          315 3_H__275    275.00    3  2     -0.1   -40.5
                                                                          507 5_PSV275    275.00    5  1    -19.5    -7.2
                                                                          507 5_PSV275    275.00    5  2    -19.5    -7.2
                                                                          507 5_PSV275    275.00    5  3    -19.5    -7.2
                                                                          507 5_PSV275    275.00    5  4    -19.5    -7.2
                                                                          507 5_PSV275    275.00    5  5    -19.5    -7.2
                                                                          507 5_PSV275    275.00    5  6    -19.5    -7.2
